
#======================================================================
# CRYSTAL DATA
#----------------------------------------------------------------------
data_VESTA_phase_1

_chemical_name_common                  'This file is generated by VASPKIT code'
_cell_length_a                         5.981939
_cell_length_b                         5.981939
_cell_length_c                         5.981939
_cell_angle_alpha                      90.000000
_cell_angle_beta                       90.000000
_cell_angle_gamma                      90.000000
_cell_volume                           214.055312
_space_group_name_H-M_alt              'P 1'
_space_group_IT_number                 1

loop_
_space_group_symop_operation_xyz
   'x, y, z'

loop_
   _atom_site_label
   _atom_site_occupancy
   _atom_site_fract_x
   _atom_site_fract_y
   _atom_site_fract_z
   _atom_site_adp_type
   _atom_site_B_iso_or_equiv
   _atom_site_type_symbol
   Ge1        1.0     0.015963     0.015961     0.015970    Biso  1.000000 Ge
   Ge2        1.0     0.015964     0.515967     0.515964    Biso  1.000000 Ge
   Ge3        1.0     0.515967     0.015967     0.515962    Biso  1.000000 Ge
   Ge4        1.0     0.515966     0.515969     0.015964    Biso  1.000000 Ge
   Te1        1.0    -0.005969    -0.005964     0.494041    Biso  1.000000 Te
   Te2        1.0    -0.005966     0.494035    -0.005969    Biso  1.000000 Te
   Te3        1.0     0.494039    -0.005966    -0.005968    Biso  1.000000 Te
   Te4        1.0     0.494035     0.494032     0.494036    Biso  1.000000 Te
